data/IEEE_Case2848/PowerGrid.m
function mpc = PowerGrid(num_zones)
%CASE2848RTE  AC Power flow data for French system.
%   Please see CASEFORMAT for details on the case file format.
%
%   This case accurately represents the size and complexity of French
%   very high voltage transmission network.
%   Part of this data was sampled in the offline platform of iTesla project.
%   These data can be used to validate mathematical methods and tools.
%   These data should NOT be used for operation
%   nor planning of the French or European grids.
%
%   When publishing results based on this data, please cite:
%
%     C. Josz, S. Fliscounakis, J. Maeght, and P. Panciatici, "AC Power Flow
%     Data in MATPOWER and QCQP Format: iTesla, RTE Snapshots, and PEGASE"
%     https://arxiv.org/abs/1603.01533
%
%   Contacts:
%     Cedric Josz, Stephane Fliscounakis, Jean Maeght, Patrick Panciatici
%     Primary contact for this file: Jean Maeght
%     firstname.lastname@rte-france.com
%     Reseau de Transport d'Electricite (French Transmission System Operator)
%     R&D Division, Paris La Defense
%
%   Modifications:
%     v2 - 2019-06-05 - Generator has been added at slack bus.
%
%   June 5th, 2019

%   MATPOWER
%   Copyright (c) 2016, 2019 by Cedric Josz, Stephane Fliscounakis, Jean Maeght,
%   and Patrick Panciatici
%   Licensed under the Creative Commons Attribution 4.0 International license,
%   https://creativecommons.org/licenses/by/4.0/

% MATPOWER Case Format : Version 2
mpc.version = '2';

%%-----  Power Flow Data  -----%%
% system MVA base
mpc.baseMVA = 100;

% bus data
%	bus_i	type	Pd	Qd	Gs	Bs	area	Vm	Va	baseKV	zone	Vmax	Vmin
mpc.bus = [
    1	1	20.6	0	0	0	1	1.05470451	-6.36026061	63	1	1.06349	0.936508	;
2	1	20.9	17.2	0	0	1	1.02159805	-10.0314743	225	1	1.08889	0.888889	;
3	1	0	0	0	0	1	1.05588778	-3.06269451	380	1	1.10263	1	;
4	1	0	0	0	0	1	1.03948873	-12.6263397	63	1	1.07937	0.920635	;
5	1	0.4	0.1	0	0	1	0.940804175	-6.95718171	45	1	1	0.888889	;
6	1	-2.3	-20.6	0	0	1	0.941885188	-6.97237088	45	1	1	0.888889	;
7	1	110.5	-25.5	0	0	1	1.05055953	-2.81195782	225	1	1.08444	1	;
8	1	44.7	1.5	0	0	1	1.0071444	-12.4478352	63	1	1.06349	0.968254	;
9	1	0	0	0	-21	1	1.04132742	-4.20175523	20	1	1.2	0.8	;
10	1	0	0	0	0	1	1.05503926	-6.89751672	150	1	1.10667	0.9	;
11	1	31.7	-8.7	0	0	1	1.05818138	-7.16161201	225	1	1.08889	0.933333	;
12	1	0	0	0	0	1	1.06222639	-4.24366423	380	1	1.10526	1	;
13	1	0	0	0	0	1	1.03414703	-9.76584244	225	1	1.09067	1	;
14	1	-4.1	3.7	0	0	1	1.0215438	-9.38943925	63	1	1.06349	0.936508	;
15	1	9	-3.3	0	0	1	1.04614056	-8.39002618	63	1	1.06349	0.936508	;
16	1	120	6.3	0	0	1	1.06403453	-8.65058577	225	1	1.08889	0.933333	;
17	1	35	6.9	0	0	1	1.02935099	-12.4430446	225	1	1.08889	1	;
18	1	45	13.4	0	0	1	1.0075651	-9.91263869	225	1	1.08962	1	;
19	2	0	0	0	0	1	1.049	-8.246157	63	1	1.08661	0.920635	;
20	1	77.3	29.1	0	0	1	1.02929559	-12.4534553	225	1	1.08889	1	;
21	1	48.4	4	0	0	1	1.02562416	-6.46141759	225	1	1.08889	0.888889	;
22	1	4.6	-11.4	0	0	1	1.09924094	-10.8960451	63	1	1.07249	0.936508	;
23	1	33.3	-5.7	0	0	1	1.0301766	-9.27643904	63	1	1.06349	0.936508	;
24	1	0	0	0	0	1	1.03910213	-6.68968647	225	1	1.08889	1	;
25	1	18	5.6	0	0	1	1.02598542	-6.49866255	225	1	1.08889	0.888889	;
26	1	1	-8	0	0	1	1.06325955	-1.70151189	225	1	1.09649	0.986667	;
27	1	22	-5.6	0	0	1	1.05527933	-8.77731848	63	1	1.06349	0.936508	;
28	1	-2.1	-0.1	0	0	1	1.01993061	-10.9621246	225	1	1.08889	1	;
29	1	7.1	-2.6	0	0	1	1.03819592	-8.39782087	63	1	1.06349	0.936508	;
30	1	3.5	-40	0	0	1	1.03258071	-10.6681728	225	1	1.08889	1	;
31	1	7.7	-1.8	0	0	1	1.04938692	-6.3603325	63	1	1.07211	0.936508	;
32	1	12.1	2.1	0	0	1	1.04250787	-8.31281305	63	1	1.06349	0.936508	;
33	1	2.4	-0.4	0	0	1	0.940485632	-7.25819904	45	1	1	0.888889	;
34	1	0	0	0	0	1	0.940865068	-6.95267473	45	1	1	0.888889	;
35	1	26	0.1	0	0	1	1.03234966	-13.0968693	63	1	1.06349	0.968254	;
36	1	0.7	-4.1	0	0	1	0.988075344	-9.71068641	45	1	1	0.888889	;
37	1	9.3	-5.3	0	0	1	1.04678026	-7.87153815	63	1	1.06349	0.936508	;
38	1	78.4	-4.8	0	0	1	1.05160168	-6.13328797	225	1	1.08934	0.986667	;
39	1	25.1	-3.3	0	0	1	1.03063944	-8.10910456	225	1	1.08889	0.888889	;
40	1	80.4	7.4	0	0	1	1.06101612	-20.3127254	225	1	1.08444	1	;
41	1	37.8	2.9	0	0	1	1.05037433	-6.38658783	63	1	1.0637	0.936508	;
42	1	0	0	0	0	1	1.05574253	-5.20380665	225	1	1.08889	0.933333	;
43	1	29	-10	0	0	1	1.03096413	-13.3440235	63	1	1.06349	0.968254	;
44	1	97.4	-3	0	0	1	1.02760856	-8.13451475	225	1	1.08889	1	;
45	1	0	0	0	0	1	1.05587689	-3.05334806	380	1	1.10526	1	;
46	1	21.3	-2.6	0	0	1	1.03304321	-5.13913852	63	1	1.06606	0.936508	;
47	1	-0.3	0.8	0	0	1	1.05369464	-6.66317717	63	1	1.06735	0.936508	;
48	1	11.6	3.2	0	0	1	1.0303725	-6.10178718	63	1	1.06349	0.968254	;
49	1	0	0	0	0	1	1.05751774	-5.77466491	225	1	1.08444	1	;
50	1	66.6	0	0	0	1	1.04138928	-9.34301151	225	1	1.08444	1	;
51	1	0	0	0	0	1	1.02965965	-12.3109268	225	1	1.08889	1	;
52	2	7.9	-4.7	0	0	1	1.05	-9.86414774	63	1	1.06349	0.968254	;
53	1	0	0	0	0	1	1.06856453	-8.92739903	150	1	1.08	0.966667	;
54	1	40.5	8.5	0	0	1	1.01750681	-22.5640563	225	1	1.09459	1	;
55	1	0	0	0	0	1	1.02812553	-20.2896436	380	1	1.10526	1	;
56	1	80.2	-7.7	0	0	1	1.05169697	-9.38998454	225	1	1.08889	0.986667	;
57	1	0	0	0	-64	1	1.02139829	-6.61396329	20	1	1.2	0.8	;
58	1	35.3	-9.2	0	0	1	1.02572051	-6.37982103	225	1	1.08889	0.968889	;
59	1	58.9	2.6	0	0	1	1.02923842	-5.15337783	380	1	1.10526	1	;
60	1	5.5	1.7	0	0	1	1.05015512	-7.76189029	63	1	1.06349	0.936508	;
61	1	0.6	0.7	0	0	1	0.999480934	-13.640044	63	1	1.06349	0.968254	;
62	1	28.6	4.1	0	0	1	0.999689018	-13.6374304	63	1	1.06349	0.968254	;
63	1	39.6	9.4	0	0	1	1.06725685	-5.84543649	225	1	1.08889	0.933333	;
64	1	0	0	0	0	1	0.999663036	-14.9116454	63	1	1.06349	0.968254	;
65	1	12.5	-6.5	0	0	1	0.997367849	-6.30218084	45	1	1	0.888889	;
66	1	0.4	3.2	0	0	1	1.0310041	-7.7303186	225	1	1.08889	0.888889	;
67	1	4.2	-2.2	0	0	1	1.03362169	-16.0862093	20	1	1.2	0.8	;
68	1	139.3	4.7	0	0	1	1.03360711	-16.084233	225	1	1.08685	1	;
69	1	83.7	-8.3	0	0	1	1.034954	-11.8072494	225	1	1.08889	1	;
70	2	0	0	0	0	1	1.079	-9.57327967	150	1	1.10885	0.9	;
71	1	0	0	0	0	1	1.02511353	-10.801354	225	1	1.08889	1	;
72	1	0	0	0	-80	1	1.02511209	-10.8013459	225	1	1.08889	1	;
73	1	15.2	5.4	0	0	1	1.03893454	-5.27223942	63	1	1.06349	0.936508	;
74	2	0	0	0	0	1	0.953	-5.60214855	45	1	1	0.888889	;
75	1	5.7	-1.3	0	0	1	1.04829988	-9.04774903	63	1	1.08481	0.920635	;
76	1	7.8	5.8	0	0	1	1.02659198	-8.46669539	225	1	1.08889	1	;
77	1	14	-4.6	0	0	1	1.02059953	-23.2891822	63	1	1.07937	0.920635	;
78	1	7.1	-2.3	0	0	1	1.05709923	-10.2916878	63	1	1.08744	0.920635	;
79	1	0	0	0	0	1	1.05316553	-11.9798632	225	1	1.08889	1	;
80	1	59.6	24	0	0	1	1.03021446	-8.29389364	225	1	1.08889	0.888889	;
81	1	27.8	-7.5	0	0	1	1.01336719	-17.7847619	63	1	1.06349	0.967399	;
82	1	61.1	-4.5	0	0	1	1.00899018	-6.86088938	225	1	1.08889	0.968889	;
83	1	0	0	0	0	1	1.00582323	-4.80208979	380	1	1.10526	1	;
84	1	31.8	1	0	0	1	1.01449967	-15.6928268	63	1	1.06349	0.968254	;
85	1	22.8	-0.9	0	0	1	1.02594104	-7.92848984	63	1	1.06349	0.968254	;
86	1	2.1	0.8	0	0	1	1.01573779	-10.8697023	63	1	1.06349	0.968254	;
87	1	30.5	6.3	0	0	1	0.995988807	-8.9710933	63	1	1.06349	0.968254	;
88	1	0	0	0	0	1	1.040345	-8.81928779	225	1	1.08444	1	;
89	1	89.3	-15.7	0	0	1	1.03589901	-12.9847819	225	1	1.08889	1	;
90	1	6.4	-11.6	0	0	1	1.0773422	-4.35184814	225	1	1.09041	0.933333	;
91	2	0	0	0	0	1	1.078	-9.67303839	150	1	1.10907	0.9	;
92	1	37.7	57.2	0	0	1	1.03370721	-7.579802	225	1	1.08444	1	;
93	1	0	0	0	0	1	1.03512475	-7.90435919	225	1	1.08889	0.977778	;
94	1	9	0.8	0	0	1	1.04308726	-6.05919942	225	1	1.08889	0.888889	;
95	1	35.8	4.5	0	0	1	1.00116437	-14.57533	63	1	1.06349	0.968254	;
96	1	16.5	-8.7	0	0	1	1.05435999	-7.28660136	225	1	1.08889	0.933333	;
97	1	28.6	5	0	0	1	1.03406228	-9.82270804	225	1	1.08889	1	;
98	1	7.3	-5.1	0	0	1	1.05230707	-12.2736164	225	1	1.08889	1	;
99	1	6.4	2.5	0	0	1	1.0477396	-5.78079344	225	1	1.08889	0.986667	;
100	1	0	0	0	0	1	1.03543967	-7.59799652	225	1	1.08889	0.888889	;
101	1	0	0	0	0	1	1.0354284	-5.85418481	380	1	1.10526	1	;
102	1	45.6	7	0	0	1	1.02012385	-11.1249232	225	1	1.08889	1	;
103	1	10.1	-0.9	0	0	1	1.02240628	-11.7394734	63	1	1.07937	0.920635	;
104	1	0	0	0	0	1	1.05453368	-6.30318143	225	1	1.08889	0.977778	;
105	1	8.4	3.5	0	0	1	1.03341873	-9.33683254	63	1	1.06349	0.968254	;
106	1	39.7	-6.4	0	0	1	1.05327278	-6.84719521	225	1	1.08444	1	;
107	1	0	0	0	0	1	1.04505982	-5.67696448	225	1	1.08444	1	;
108	1	0	0	0	0	1	1.04245389	0.658976821	380	1	1.10263	1	;
109	1	62.2	-16.1	0	0	1	1.0449323	-5.74055895	225	1	1.08444	1	;
110	1	2.2	-1	0	0	1	1.00833098	-9.79513081	225	1	1.09035	1	;
111	1	5	-3.8	0	0	1	1.05835537	-2.9554883	225	1	1.08889	0.888889	;
112	1	30	0	0	0	1	1.0458544	-8.537789	63	1	1.06349	0.936508	;
113	1	11.7	1.8	0	0	1	1.02989719	-7.47988769	225	1	1.08889	0.888889	;
114	1	51.9	15.9	0	0	1	1.00893367	-7.47468297	225	1	1.08889	0.888889	;
115	1	2.6	0.2	0	0	1	1.04056825	-7.77992158	63	1	1.06349	0.968254	;
116	1	38	3.1	0	0	1	1.00631183	-25.3303958	63	1	1.07937	0.920635	;
117	1	24	-7.3	0	0	1	1.027299	-15.3864117	63	1	1.06349	0.968254	;
118	2	0	0	0	0	1	1.038	-6.16337145	63	1	1.06863	0.936508	;
119	1	8	2.5	0	0	1	1.03115825	-18.4930713	63	1	1.06349	0.968254	;
120	1	77.1	-3.9	0	0	1	1.02568006	-7.97134302	225	1	1.08889	1	;
121	1	21.2	4.4	0	0	1	1.03854288	-13.8649462	63	1	1.07937	0.920635	;
122	2	0	-4.6	0	0	1	1.047	-10.0473018	63	1	1.08203	0.920635	;
123	1	0	0	0	0	1	1.03627903	-18.561608	63	1	1.07937	0.920635	;
124	1	0	0	0	0	1	1.01319228	-12.8327281	225	1	1.08889	1	;
125	1	0	0	0	0	1	1.05062871	-12.8751284	380	1	1.10526	1	;
126	1	17.1	1.5	0	0	1	1.0548165	-6.4342118	63	1	1.06349	0.936508	;
127	2	18.2	12.2	0	0	1	1.029	-7.4188605	63	1	1.06349	0.936508	;
128	1	-13.2	16.1	0	0	1	1.0438103	-13.0828949	63	1	1.07937	0.920635	;
129	1	0	0	0	0	1	1.04997009	-11.375814	225	1	1.08889	1	;
130	1	81.2	18.3	0	0	1	1.04787402	-10.5448015	225	1	1.08889	1	;
131	2	9.6	3.3	0	0	1	1.028	-21.4059689	63	1	1.06538	0.968254	;
132	2	0	0	0	0	1	1.042	-15.5753316	150	1	1.08	0.966667	;
133	2	-8.9	-4.4	0	0	1	1.066	-10.8988078	63	1	1.07937	0.920635	;
134	1	-10.6	-2.1	0	0	1	1.03361325	-4.09140552	225	1	1.08889	0.986667	;
135	1	14.1	-3.7	0	0	1	1.01208758	-12.7523015	63	1	1.06349	0.968254	;
136	1	11.3	-2.7	0	0	1	1.07000448	-4.36673714	225	1	1.08444	1	;
137	1	9.4	-2.2	0	0	1	1.0098168	-20.8608447	63	1	1.06349	0.968254	;
138	1	0	0	0	0	1	1.02957315	-2.43049674	380	1	1.10526	1	;
139	1	11.1	4.5	0	0	1	1.02794966	-8.01355421	225	1	1.08889	1	;
140	1	7.2	5.2	0	0	1	1.03527316	-10.5477788	225	1	1.08889	1	;
141	1	20.9	-1.3	0	0	1	1.0156966	-14.3067102	63	1	1.06349	0.968254	;
142	1	33.4	6.5	0	0	1	1.06450753	-11.4790353	150	1	1.1	0.9	;
143	1	61.8	-3.3	0	0	1	1.03168242	-14.3088938	225	1	1.08925	1	;
144	2	0	0	0	0	1	1.02	-10.9841092	225	1	1.08889	1	;
145	1	0	0	0	0	1	1.05726942	-7.25386689	225	1	1.08889	0.933333	;
146	1	0	0	0	0	1	1.06212699	-4.22135461	380	1	1.10526	1	;
147	1	0	0	0	0	1	1.02963817	-12.423694	225	1	1.08889	1	;
148	1	0	0	0	0	1	1.01066159	-5.39373722	225	1	1.08889	0.986667	;
149	1	9.8	4.5	0	0	1	1.02946506	-12.43406	225	1	1.08889	1	;
150	1	0	0	0	0	1	1.06476781	-3.62849011	20	1	1.2	0.8	;
151	1	88.2	-7.1	0	0	1	1.05668343	-3.22112522	225	1	1.08889	0.933333	;
152	1	0	0	0	0	1	1.05807749	-1.38344872	380	1	1.10526	1	;
153	1	23.8	-12.3	0	0	1	1.02642423	-6.35525738	225	1	1.08889	1	;
154	1	18.2	-0.6	0	0	1	1.05933631	-7.56367112	63	1	1.06503	0.936508	;
155	1	0.4	0.2	0	0	1	1.03786549	-9.40822782	63	1	1.06349	0.968254	;
156	1	18.7	-2.5	0	0	1	1.02886987	-15.0271693	63	1	1.07937	0.920635	;
157	1	19.2	-1	0	0	1	1.01435913	-16.3125652	63	1	1.06349	0.968254	;
158	1	4	0.2	0	0	1	1.05293054	-8.69416637	63	1	1.06349	0.936508	;
159	2	0	0	0	0	1	1.063	-15.102627	63	1	1.15	0.8	;
160	1	2.8	3.9	0	0	1	1.03530426	-11.220724	225	1	1.09053	1	;
161	1	0	0	0	0	1	1.03097224	-23.8741599	63	1	1.06349	0.968254	;
162	1	68.7	-27.8	0	0	1	1.04298945	-15.2894298	225	1	1.09791	1	;
163	1	70.9	-7.8	0	0	1	1.03980018	-3.98818151	225	1	1.08889	0.986667	;
164	1	35.7	1.2	0	0	1	1.0138269	-10.9079236	63	1	1.06349	0.968254	;
165	1	66.9	15.7	0	0	1	1.03414515	-9.7605369	225	1	1.09067	1	;
166	1	10.2	-5.9	0	0	1	1.05143246	-8.21379396	63	1	1.06349	0.936508	;
167	1	22.5	-8.3	0	0	1	1.03977254	-11.0520793	63	1	1.06349	0.968254	;
168	1	3.1	1.2	0	0	1	1.04549514	-7.92681615	63	1	1.06822	0.936508	;
169	1	103.9	36.4	0	0	1	1.0279787	-8.48321396	225	1	1.08889	0.924444	;
170	2	0	0	0	0	1	1.03117205	-7.46842751	63	1	1.06349	0.968254	;
171	1	46.9	-16.3	0	0	1	1.05679354	-0.866806167	225	1	1.09616	0.986667	;
172	1	0	0	0	0	1	1.05916881	-0.28973401	380	1	1.10526	1	;
173	1	83.4	-19.9	0	0	1	1.05104139	-13.6865226	225	1	1.08444	1	;
174	1	0	0	0	-64	1	1.00911929	-19.4666264	20	1	1.2	0.8	;
175	1	0	0	0	0	1	0.98594024	-20.9282754	63	1	1.06349	0.960855	;
176	1	0	0	0	0	1	1.05933935	-19.1624772	225	1	1.08444	1	;
177	1	0	0	0	0	1	1.05477538	-16.725398	380	1	1.10263	1	;
178	1	-0.3	-5.1	0	0	1	1.05732887	-3.22758491	225	1	1.08889	0.933333	;
179	1	-0.2	-8.9	0	0	1	0.995614012	-6.48033263	45	1	1.01652	0.888889	;
180	1	0	0	0	0	1	1.05049999	-7.73143509	63	1	1.06349	0.936508	;
181	1	0	0	0	0	1	1.0560569	-5.44756333	225	1	1.08889	0.933333	;
182	2	0	0	0	0	1	1.056	-5.71662703	225	1	1.08889	0.977778	;
183	1	12.8	-5.2	0	0	1	1.03613008	-8.35030045	63	1	1.06349	0.936508	;
184	1	-3.5	-3.5	0	0	1	1.03237097	0.253816362	225	1	1.09862	1	;
185	1	0	0	0	0	1	1.02767291	0.215362838	380	1	1.10526	1	;
186	1	0	0	0	0	1	1.05681566	-0.865700551	225	1	1.09683	0.986667	;
187	1	0	0	0	0	1	1.05905251	-0.21992874	380	1	1.10526	1	;
188	1	8.4	-10.3	0	0	1	1.02956968	-6.56343814	225	1	1.08889	0.968889	;
189	1	34.1	-3.5	0	0	1	1.01018328	-24.5482822	63	1	1.06349	0.968254	;
190	1	29.2	4.5	0	0	1	1.06093648	-20.264053	225	1	1.08444	1	;
191	1	11.4	4.2	0	0	1	1.04148904	-2.42922661	380	1	1.10526	1	;
192	1	0	0	0	0	1	1.04462712	-7.50926826	63	1	1.06349	0.936508	;
193	1	0	0	0	0	1	1.0637091	-4.76954445	225	1	1.08889	0.933333	;
194	1	0	0	0	0	1	1.05644678	-2.04855413	380	1	1.10526	1	;
195	1	3.7	13.7	0	0	1	1.03863902	-6.32659925	63	1	1.06349	0.968254	;
196	1	0	0	0	0	1	1.06479303	-3.48160887	225	1	1.08444	1	;
197	1	152.4	6.2	0	0	1	1.04953137	-2.60802046	225	1	1.08444	1	;
198	1	29.9	3	0	0	1	1.06629546	-5.13765463	225	1	1.08889	0.933333	;
199	1	24.1	-16.4	0	0	1	1.03534237	-11.2197244	225	1	1.09027	1	;
200	1	0	0	0	0	1	1.08132349	-5.12163025	225	1	1.09529	1	;
...
];

% generator data
%	bus	Pg	Qg	Qmax	Qmin	Vg	mBase	status	Pmax	Pmin	Pc1	Pc2	Qc1min	Qc1max	Qc2min	Qc2max	ramp_agc	ramp_10	ramp_30	ramp_q	apf
mpc.gen = [
	21	0	0	0	0	1.044	100	1	26.5	6	0	0	0	0	0	0	0	0	0	0	0	;
59	0	0	0	0	1.042	100	1	25	5	0	0	0	0	0	0	0	0	0	0	0	;
74	0	0	0	0	1.071	100	1	4	0	0	0	0	0	0	0	0	0	0	0	0	;
80	0	0	0	0	0.998	100	1	9	1.8	0	0	0	0	0	0	0	0	0	0	0	;
85	0	0	0	0	0.96	100	1	27	5.4	0	0	0	0	0	0	0	0	0	0	0	;
104	0	0	0	0	0.998	100	1	11	2.2	0	0	0	0	0	0	0	0	0	0	0	;
137	0	0	0	0	1.048	100	0	5	0	0	0	0	0	0	0	0	0	0	0	0	;
142	0	0	0	0	1.01	100	1	24	4.8	0	0	0	0	0	0	0	0	0	0	0	;
147	0	0	0	0	0.998	100	1	9	1.8	0	0	0	0	0	0	0	0	0	0	0	;
151	0	0	0	0	1.059	100	1	36.1	7.22	0	0	0	0	0	0	0	0	0	0	0	;
152	0	0	0	0	1.029	100	1	24	4.8	0	0	0	0	0	0	0	0	0	0	0	;
153	0	0	0	0	1.028	100	1	25	5	0	0	0	0	0	0	0	0	0	0	0	;
165	0	0	0	0	1.038	100	1	2	0	0	0	0	0	0	0	0	0	0	0	0	;
182	0	0	0	0	1.024	100	1	11	2.2	0	0	0	0	0	0	0	0	0	0	0	;
205	0	0	0	0	1.114	100	1	17	3.4	0	0	0	0	0	0	0	0	0	0	0	;
249	0	0	0	0	0.971	100	1	42	8.4	0	0	0	0	0	0	0	0	0	0	0	;
256	0	0	0	0	1.05	100	1	13.8	2.76	0	0	0	0	0	0	0	0	0	0	0	;
262	0	0	0	0	1.052	100	1	39	7.8	0	0	0	0	0	0	0	0	0	0	0	;
268	0	0	0	0	1.04	100	1	16.8	3.36	0	0	0	0	0	0	0	0	0	0	0	;
269	0	0	0	0	1.041	100	1	28.9	5.78	0	0	0	0	0	0	0	0	0	0	0	;
273	0	0	0	0	1.008	100	1	22	4.4	0	0	0	0	0	0	0	0	0	0	0	;
287	0	0	0	0	1.05	100	1	45	9	0	0	0	0	0	0	0	0	0	0	0	;
295	0	0	0	0	1.036	100	1	20.8	4.16	0	0	0	0	0	0	0	0	0	0	0	;
301	0	0	0	0	1.044	100	1	22.9	6	0	0	0	0	0	0	0	0	0	0	0	;
312	0	0	0	0	1	100	1	8.5	1.7	0	0	0	0	0	0	0	0	0	0	0	;
315	0	0	0	0	1.057	100	0	1.06	0	0	0	0	0	0	0	0	0	0	0	0	;
316	0	0	0	0	1.08	100	1	12	2.4	0	0	0	0	0	0	0	0	0	0	0	;
323	0	0	0	0	1.036	100	1	50	10	0	0	0	0	0	0	0	0	0	0	0	;
325	0	0	0	0	1.029	100	1	11	2.2	0	0	0	0	0	0	0	0	0	0	0	;
326	0	0	0	0	1.047	100	1	0	-7	0	0	0	0	0	0	0	0	0	0	0	;
335	0	0	0	0	1.054	100	1	10.2	2.04	0	0	0	0	0	0	0	0	0	0	0	;
336	0	0	0	0	1.037	100	1	4	0	0	0	0	0	0	0	0	0	0	0	0	;
345	0	0	0	0	1.067	100	1	13	2.6	0	0	0	0	0	0	0	0	0	0	0	;
346	0	0	0	0	1.067	100	1	7	1.4	0	0	0	0	0	0	0	0	0	0	0	;
347	0	0	0	0	1.035	100	1	27	5.4	0	0	0	0	0	0	0	0	0	0	0	;
356	0	0	0	0	1.055	100	1	55.4	11.08	0	0	0	0	0	0	0	0	0	0	0	;
357	0	0	0	0	1.033	100	1	16	3.2	0	0	0	0	0	0	0	0	0	0	0	;
363	0	0	0	0	1.049	100	1	18	3.6	0	0	0	0	0	0	0	0	0	0	0	;
366	0	0	0	0	1.052	100	1	9.8	1.96	0	0	0	0	0	0	0	0	0	0	0	;
367	0	0	0	0	1.05	100	1	1.2	0	0	0	0	0	0	0	0	0	0	0	0	;
382	0	0	0	0	1.024	100	1	15	3	0	0	0	0	0	0	0	0	0	0	0	;
383	0	0	0	0	1.024	100	1	15	3	0	0	0	0	0	0	0	0	0	0	0	;
397	0	0	0	0	1.058	100	1	24	4.8	0	0	0	0	0	0	0	0	0	0	0	;
440	0	0	0	0	1.05	100	1	18	3.6	0	0	0	0	0	0	0	0	0	0	0	;
444	0	0	0	0	1.024	100	1	2.7	0	0	0	0	0	0	0	0	0	0	0	0	;
501	0	0	0	0	1.028	100	1	11	2.2	0	0	0	0	0	0	0	0	0	0	0	;
502	0	0	0	0	1.013	100	1	10.33	2.07	0	0	0	0	0	0	0	0	0	0	0	;
510	0	0	0	0	1.053	100	1	9	1.8	0	0	0	0	0	0	0	0	0	0	0	;
550	0	0	0	0	1.079	100	1	30	6	0	0	0	0	0	0	0	0	0	0	0	;
551	0	0	0	0	1.013	100	1	10.33	2.07	0	0	0	0	0	0	0	0	0	0	0	;
586	0	0	0	0	1.031	100	1	10	2	0	0	0	0	0	0	0	0	0	0	0	;
598	0	0	0	0	1.058	100	1	6	1.2	0	0	0	0	0	0	0	0	0	0	0	;
604	0	0	0	0	1.05	100	1	45	9	0	0	0	0	0	0	0	0	0	0	0	;
613	0	0	0	0	1.02	100	1	130	26	0	0	0	0	0	0	0	0	0	0	0	;
620	0	0	0	0	1.08	100	0	14	2.8	0	0	0	0	0	0	0	0	0	0	0	;
645	0	0	0	0	1.047	100	1	0	-7	0	0	0	0	0	0	0	0	0	0	0	;
652	0	0	0	0	1.048	100	1	4	0	0	0	0	0	0	0	0	0	0	0	0	;
687	0	0	0	0	1.051	100	1	75	15	0	0	0	0	0	0	0	0	0	0	0	;
688	0	0	0	0	1.051	100	1	75	15	0	0	0	0	0	0	0	0	0	0	0	;
715	0	0	0	0	1.034	100	1	13	2.6	0	0	0	0	0	0	0	0	0	0	0	;
741	0	0	0	0	1.038	100	1	12	2.4	0	0	0	0	0	0	0	0	0	0	0	;
746	0	0	0	0	1.047	100	1	4.6	0	0	0	0	0	0	0	0	0	0	0	0	;
756	0	0	0	0	1.068	100	1	29	5.8	0	0	0	0	0	0	0	0	0	0	0	;
765	0	0	0	0	1.01	100	1	46	9.2	0	0	0	0	0	0	0	0	0	0	0	;
785	0	0	0	0	1.012	100	1	50	5	0	0	0	0	0	0	0	0	0	0	0	;
786	0	0	0	0	1.01	100	1	10	2	0	0	0	0	0	0	0	0	0	0	0	;
787	0	0	0	0	1.037	100	1	21	4.2	0	0	0	0	0	0	0	0	0	0	0	;
830	0	0	0	0	1.049	100	1	10.2	2.04	0	0	0	0	0	0	0	0	0	0	0	;
844	0	0	0	0	1.054	100	1	19	3.8	0	0	0	0	0	0	0	0	0	0	0	;
845	0	0	0	0	1.06	100	1	31	6.2	0	0	0	0	0	0	0	0	0	0	0	;
846	0	0	0	0	1.058	100	1	37.5	7.5	0	0	0	0	0	0	0	0	0	0	0	;
847	0	0	0	0	1.06	100	1	31	6.2	0	0	0	0	0	0	0	0	0	0	0	;
885	0	0	0	0	1.013	100	1	13	2.6	0	0	0	0	0	0	0	0	0	0	0	;
886	0	0	0	0	1.06	100	1	14	2.8	0	0	0	0	0	0	0	0	0	0	0	;
887	0	0	0	0	1.013	100	1	13	2.6	0	0	0	0	0	0	0	0	0	0	0	;
888	0	0	0	0	1.013	100	1	13	2.6	0	0	0	0	0	0	0	0	0	0	0	;
889	0	0	0	0	1.013	100	1	13	2.6	0	0	0	0	0	0	0	0	0	0	0	;
890	0	0	0	0	0.986	100	1	20	4	0	0	0	0	0	0	0	0	0	0	0	;
898	0	0	0	0	1.047	100	1	54	10.8	0	0	0	0	0	0	0	0	0	0	0	;
899	0	0	0	0	1.025	100	1	40.8	8.16	0	0	0	0	0	0	0	0	0	0	0	;
900	0	0	0	0	1.03	100	1	32	1	0	0	0	0	0	0	0	0	0	0	0	;
904	0	0	0	0	1.041	100	0	25	5	0	0	0	0	0	0	0	0	0	0	0	;
906	0	0	0	0	1.026	100	1	27.6	5.52	0	0	0	0	0	0	0	0	0	0	0	;
1012	0	0	0	0	1.08	100	1	12	2.4	0	0	0	0	0	0	0	0	0	0	0	;
1055	0	0	0	0	1.037	100	1	6.9	1.38	0	0	0	0	0	0	0	0	0	0	0	;
1056	0	0	0	0	1.053	100	1	13	2.6	0	0	0	0	0	0	0	0	0	0	0	;
1064	0	0	0	0	1.056	100	1	12	2.4	0	0	0	0	0	0	0	0	0	0	0	;
1065	0	0	0	0	1.048	100	1	16	3.2	0	0	0	0	0	0	0	0	0	0	0	;
1066	0	0	0	0	1.029	100	1	26	5.2	0	0	0	0	0	0	0	0	0	0	0	;
1067	0	0	0	0	1.077	100	0	21	4.2	0	0	0	0	0	0	0	0	0	0	0	;
1068	0	0	0	0	1.026	100	1	12	2.4	0	0	0	0	0	0	0	0	0	0	0	;
1069	0	0	0	0	1.057	100	1	21	4.2	0	0	0	0	0	0	0	0	0	0	0	;
1117	0	0	0	0	1.04	100	1	4.6	0	0	0	0	0	0	0	0	0	0	0	0	;
1143	0	0	0	0	1.048	100	1	10	2	0	0	0	0	0	0	0	0	0	0	0	;
1161	0	0	0	0	1.06	100	1	41.4	8.28	0	0	0	0	0	0	0	0	0	0	0	;
1166	0	0	0	0	0.953	100	1	30	6	0	0	0	0	0	0	0	0	0	0	0	;
1173	0	0	0	0	1.04	100	1	16	3.2	0	0	0	0	0	0	0	0	0	0	0	;
1174	0	0	0	0	1.063	100	1	18	3.6	0	0	0	0	0	0	0	0	0	0	0	;
1176	0	0	0	0	1.034	100	1	6.68	1.34	0	0	0	0	0	0	0	0	0	0	0	;
1250	0	0	0	0	1.02	100	1	8.6	1.72	0	0	0	0	0	0	0	0	0	0	0	;
1273	0	0	0	0	1.055	100	1	8	1.6	0	0	0	0	0	0	0	0	0	0	0	;
1276	0	0	0	0	1.038	100	1	15	3	0	0	0	0	0	0	0	0	0	0	0	;
1368	0	0	0	0	1.007	100	1	7.2	1.44	0	0	0	0	0	0	0	0	0	0	0	;
1372	0	0	0	0	0.977	100	1	8.9	1.78	0	0	0	0	0	0	0	0	0	0	0	;
1373	0	0	0	0	1.07	100	1	2.3	0	0	0	0	0	0	0	0	0	0	0	0	;
1374	0	0	0	0	1.052	100	1	2.6	0	0	0	0	0	0	0	0	0	0	0	0	;
1375	0	0	0	0	1.07	100	1	18	3.6	0	0	0	0	0	0	0	0	0	0	0	;
1380	0	0	0	0	1.057	100	1	8	1.6	0	0	0	0	0	0	0	0	0	0	0	;
1406	0	0	0	0	1.071	100	1	7	1.4	0	0	0	0	0	0	0	0	0	0	0	;
1420	0	0	0	0	1.056	100	1	23.4	4.68	0	0	0	0	0	0	0	0	0	0	0	;
1437	0	0	0	0	1.068	100	1	29	5.8	0	0	0	0	0	0	0	0	0	0	0	;
1443	0	0	0	0	1.026	100	1	24	4.8	0	0	0	0	0	0	0	0	0	0	0	;
1451	0	0	0	0	1.05	100	1	18	3.6	0	0	0	0	0	0	0	0	0	0	0	;
1495	0	0	0	0	1.039	100	1	6.1	1.22	0	0	0	0	0	0	0	0	0	0	0	;
1502	0	0	0	0	1.035	100	1	38	7.6	0	0	0	0	0	0	0	0	0	0	0	;
1504	0	0	0	0	1.024	100	1	11	2.2	0	0	0	0	0	0	0	0	0	0	0	;
1520	0	0	0	0	1.031	100	1	18	3.6	0	0	0	0	0	0	0	0	0	0	0	;
1523	0	0	0	0	1.049	100	1	13	2.6	0	0	0	0	0	0	0	0	0	0	0	;
1541	0	0	0	0	1.046	100	1	35	7	0	0	0	0	0	0	0	0	0	0	0	;
1563	0	0	0	0	0.998	100	1	11	2.2	0	0	0	0	0	0	0	0	0	0	0	;
1566	0	0	0	0	1.02	100	1	29	5.8	0	0	0	0	0	0	0	0	0	0	0	;
1589	0	0	0	0	1.03	100	1	32	1	0	0	0	0	0	0	0	0	0	0	0	;
1600	0	0	0	0	0.892	100	0	169	82	0	0	0	0	0	0	0	0	0	0	0	;
1608	0	0	0	0	1.071	100	1	37	7.4	0	0	0	0	0	0	0	0	0	0	0	;
1609	0	0	0	0	1.033	100	1	22	4.4	0	0	0	0	0	0	0	0	0	0	0	;
1674	0	0	0	0	0.998	100	1	4	0	0	0	0	0	0	0	0	0	0	0	0	;
1675	0	0	0	0	0.998	100	1	8.5	1.7	0	0	0	0	0	0	0	0	0	0	0	;
1676	0	0	0	0	0.998	100	1	5.7	1.14	0	0	0	0	0	0	0	0	0	0	0	;
1688	0	0	0	0	1.011	100	1	50	5	0	0	0	0	0	0	0	0	0	0	0	;
1726	0	0	0	0	1.036	100	1	7	1.4	0	0	0	0	0	0	0	0	0	0	0	;
1749	0	0	0	0	1.078	100	1	6	1.2	0	0	0	0	0	0	0	0	0	0	0	;
1750	0	0	0	0	1.03	100	1	25.3	5.06	0	0	0	0	0	0	0	0	0	0	0	;
1758	0	0	0	0	1.077	100	1	62	12.4	0	0	0	0	0	0	0	0	0	0	0	;
1775	0	0	0	0	1.047	100	1	78	15.6	0	0	0	0	0	0	0	0	0	0	0	;
1792	0	0	0	0	1.055	100	1	8	1.6	0	0	0	0	0	0	0	0	0	0	0	;
1823	0	0	0	0	1.044	100	1	26.5	6	0	0	0	0	0	0	0	0	0	0	0	;
1866	0	0	0	0	1.046	100	1	35	7	0	0	0	0	0	0	0	0	0	0	0	;
1870	0	0	0	0	1.048	100	0	7	1.4	0	0	0	0	0	0	0	0	0	0	0	;
1889	0	0	0	0	1.071	100	1	37	7.4	0	0	0	0	0	0	0	0	0	0	0	;
1901	0	0	0	0	0.998	100	0	15	3	0	0	0	0	0	0	0	0	0	0	0	;
1903	0	0	0	0	1.02	100	1	10.5	2.1	0	0	0	0	0	0	0	0	0	0	0	;
1910	0	0	0	0	0.96	100	1	27	5.4	0	0	0	0	0	0	0	0	0	0	0	;
1912	0	0	0	0	0.971	100	1	42	8.4	0	0	0	0	0	0	0	0	0	0	0	;
1932	0	0	0	0	1.039	100	1	12	2.4	0	0	0	0	0	0	0	0	0	0	0	;
1945	0	0	0	0	1.04	100	1	8.3	1.66	0	0	0	0	0	0	0	0	0	0	0	;
1961	0	0	0	0	1.114	100	0	7	1.4	0	0	0	0	0	0	0	0	0	0	0	;
1973	0	0	0	0	1.024	100	1	23.5	4.7	0	0	0	0	0	0	0	0	0	0	0	;
1974	0	0	0	0	1.054	100	1	6.7	1.34	0	0	0	0	0	0	0	0	0	0	0	;
1975	0	0	0	0	1.054	100	1	5.6	1.12	0	0	0	0	0	0	0	0	0	0	0	;
1976	0	0	0	0	1.055	100	1	26.6	5.32	0	0	0	0	0	0	0	0	0	0	0	;
1984	0	0	0	0	1.042	100	1	52	10.4	0	0	0	0	0	0	0	0	0	0	0	;
1993	0	0	0	0	1.077	100	1	20	4	0	0	0	0	0	0	0	0	0	0	0	;
1994	0	0	0	0	1.066	100	1	13	2.6	0	0	0	0	0	0	0	0	0	0	0	;
1996	0	0	0	0	1.028	100	1	11	2.2	0	0	0	0	0	0	0	0	0	0	0	;
2022	0	0	0	0	0.998	100	1	4	0	0	0	0	0	0	0	0	0	0	0	0	;
2077	0	0	0	0	1.059	100	1	40	8	0	0	0	0	0	0	0	0	0	0	0	;
2091	0	0	0	0	1.034	100	1	13	2.6	0	0	0	0	0	0	0	0	0	0	0	;
2092	0	0	0	0	1.114	100	1	17	3.4	0	0	0	0	0	0	0	0	0	0	0	;
2109	0	0	0	0	1.057	100	1	8	1.6	0	0	0	0	0	0	0	0	0	0	0	;
2116	0	0	0	0	1.05	100	1	13.8	2.76	0	0	0	0	0	0	0	0	0	0	0	;
2133	0	0	0	0	1.027	100	1	17.25	3.45	0	0	0	0	0	0	0	0	0	0	0	;
2137	0	0	0	0	1.047	100	1	24	2.5	0	0	0	0	0	0	0	0	0	0	0	;
2138	0	0	0	0	1.047	100	1	24	2.5	0	0	0	0	0	0	0	0	0	0	0	;
2139	0	0	0	0	1.034	100	1	28	5.6	0	0	0	0	0	0	0	0	0	0	0	;
2140	0	0	0	0	1.034	100	1	28	5.6	0	0	0	0	0	0	0	0	0	0	0	;
2142	0	0	0	0	1.034	100	1	28	5.6	0	0	0	0	0	0	0	0	0	0	0	;
2151	0	0	0	0	1.053	100	1	7.3	1.46	0	0	0	0	0	0	0	0	0	0	0	;
2155	0	0	0	0	1.055	100	1	8	1.6	0	0	0	0	0	0	0	0	0	0	0	;
2167	0	0	0	0	1.048	100	1	23.5	4.7	0	0	0	0	0	0	0	0	0	0	0	;
2169	0	0	0	0	1.075	100	1	239	47.8	0	0	0	0	0	0	0	0	0	0	0	;
2189	0	0	0	0	1.055	100	1	8	1.6	0	0	0	0	0	0	0	0	0	0	0	;
2201	0	0	0	0	1.053	100	0	43	8.6	0	0	0	0	0	0	0	0	0	0	0	;
2216	0	0	0	0	0.983	100	1	12.4	2.48	0	0	0	0	0	0	0	0	0	0	0	;
2224	0	0	0	0	1.047	100	1	22.6	4.52	0	0	0	0	0	0	0	0	0	0	0	;
2225	0	0	0	0	1.057	100	1	18	3.6	0	0	0	0	0	0	0	0	0	0	0	;
2226	0	0	0	0	1.047	100	1	1.7	0	0	0	0	0	0	0	0	0	0	0	0	;
2609	0	0	0	0	1.024	100	1	24	4.8	0	0	0	0	0	0	0	0	0	0	0	;
2610	0	0	0	0	1.047	100	1	7.5	1.5	0	0	0	0	0	0	0	0	0	0	0	;
2611	0	0	0	0	1.047	100	1	7.5	1.5	0	0	0	0	0	0	0	0	0	0	0	;
2612	0	0	0	0	1.047	100	1	7.5	1.5	0	0	0	0	0	0	0	0	0	0	0	;
2613	0	0	0	0	1.047	100	1	7.5	1.5	0	0	0	0	0	0	0	0	0	0	0	;
2614	0	0	0	0	1.047	100	1	7.5	1.5	0	0	0	0	0	0	0	0	0	0	0	;
2615	0	0	0	0	1.051	100	1	23.1	4.62	0	0	0	0	0	0	0	0	0	0	0	;
2616	0	0	0	0	1.051	100	1	23.1	4.62	0	0	0	0	0	0	0	0	0	0	0	;
2617	0	0	0	0	1.032	100	1	3	0	0	0	0	0	0	0	0	0	0	0	0	;
2618	0	0	0	0	1.069	100	1	0	-8	0	0	0	0	0	0	0	0	0	0	0	;
2619	0	0	0	0	1.069	100	1	53	10.6	0	0	0	0	0	0	0	0	0	0	0	;
2620	0	0	0	0	1.037	100	1	35	7	0	0	0	0	0	0	0	0	0	0	0	;
2621	0	0	0	0	1.039	100	1	18	3.6	0	0	0	0	0	0	0	0	0	0	0	;
2622	0	0	0	0	1.044	100	1	10	2	0	0	0	0	0	0	0	0	0	0	0	;
2623	0	0	0	0	1.059	100	1	12.8	2.56	0	0	0	0	0	0	0	0	0	0	0	;
2624	0	0	0	0	1.084	100	1	39	7.8	0	0	0	0	0	0	0	0	0	0	0	;
2625	0	0	0	0	1.063	100	1	50	10	0	0	0	0	0	0	0	0	0	0	0	;
2626	0	0	0	0	1.063	100	1	40	8	0	0	0	0	0	0	0	0	0	0	0	;
2628	0	0	0	0	1.03	100	1	2	0	0	0	0	0	0	0	0	0	0	0	0	;
2629	0	0	0	0	1.051	100	1	12	2.4	0	0	0	0	0	0	0	0	0	0	0	;
2630	0	0	0	0	1.051	100	1	12	2.4	0	0	0	0	0	0	0	0	0	0	0	;
2631	0	0	0	0	1.032	100	1	5	0	0	0	0	0	0	0	0	0	0	0	0	;
2632	0	0	0	0	1.043	100	1	3	0	0	0	0	0	0	0	0	0	0	0	0	;
2633	0	0	0	0	1.055	100	1	10	2	0	0	0	0	0	0	0	0	0	0	0	;
...
];

% branch data
%	fbus	tbus	r	x	b	rateA	rateB	rateC	ratio	angle	status	angmin	angmax
mpc.branch = [
    633	1	0.005799	0.010615	0.0075	0	0	0	1	0	1	0	0	;
897	2	0.002607	0.017462	0.0324	540	540	540	1	0	1	0	0	;
2472	3	2.10E-05	0.000125	0.1386	737	737	737	1	0	1	0	0	;
865	3	0.000145	0.001877	0.0635	2487	2487	2487	1	0	1	0	0	;
1690	3	0.000319	0.003234	0.0838	1841	1841	1841	1	0	1	0	0	;
45	3	2.10E-05	0.000125	0.1386	737	737	737	1	0	1	0	0	;
1059	4	0.037541	0.100529	0.0011	0	0	0	1	0	1	0	0	;
1516	4	0.090199	0.211388	0.0023	0	0	0	1	0	1	0	0	;
1639	4	0.09801	0.267574	0	0	0	0	1	0	1	0	0	;
1354	5	0.009383	0.019753	0	0	0	0	1	0	1	0	0	;
1354	6	0.001975	0.004444	0	0	0	0	1	0	1	0	0	;
197	7	0.006163	0.041067	0.0759	446	446	446	1	0	1	0	0	;
870	7	0.000652	0.004369	0.0081	558	558	558	1	0	1	0	0	;
1048	8	0.067019	0.137566	0.0037	0	0	0	1	0	1	0	0	;
1207	8	0.032754	0.088939	0.0039	0	0	0	1	0	1	0	0	;
1207	8	0.030184	0.080096	0.0053	0	0	0	1	0	1	0	0	;
1355	10	0.009733	0.034089	0.0185	0	0	0	1	0	1	0	0	;
145	11	0.000277	0.002015	0.003	288	288	288	1	0	1	0	0	;
382	2469	0.00881	0.033995	0.0607	289	289	289	1	0	1	0	0	;
432	2469	0.004642	0.019832	0.0354	255	255	255	1	0	1	0	0	;
943	11	0.008861	0.03506	0.0623	288	288	288	1	0	1	0	0	;
978	11	0.006993	0.032869	0.0557	255	255	255	1	0	1	0	0	;
1754	2469	0.002173	0.008731	0.0152	0	0	0	1	0	1	0	0	;
1797	11	0.00077	0.003121	0.0051	0	0	0	1	0	1	0	0	;
2071	2469	0.004109	0.016138	0.0284	288	288	288	1	0	1	0	0	;
2488	12	8.30E-05	0.000907	0.0202	1034	1034	1034	1	0	1	0	0	;
414	12	0.000552	0.006726	0.0939	1786	1786	1786	1	0	1	0	0	;
799	12	0.000512	0.008012	0.2455	2462	2462	2462	1	0	1	0	0	;
1144	12	0.001107	0.00918	0.1906	1644	1644	1644	1	0	1	0	0	;
146	12	6.20E-05	0.000741	0.0173	1095	1095	1095	1	0	1	0	0	;
799	12	0.000512	0.008019	0.2455	2462	2462	2462	1	0	1	0	0	;
799	12	0.001153	0.013123	0.1841	1433	1433	1433	1	0	1	0	0	;
165	13	0.000158	0.000672	0.0719	331	331	331	1	0	1	0	0	;
1447	13	4.50E-05	8.90E-05	0.002	268	268	268	1	0	1	0	0	;
810	14	0.033258	0.090955	0.001	0	0	0	1	0	1	0	0	;
460	15	0.071303	0.180902	0.0021	0	0	0	1	0	1	0	0	;
868	15	0.071554	0.18191	0.0021	0	0	0	1	0	1	0	0	;
2556	16	0.00478	0.028622	0.0547	455	455	455	1	0	1	0	0	;
446	16	0.00478	0.028583	0.0547	455	455	455	1	0	1	0	0	;
149	17	0.000257	0.000514	0.0294	0	0	0	1	0	1	0	0	;
974	18	0.000257	0.002153	0.2147	452	452	452	1	0	1	0	0	;
1248	18	0.000277	0.000869	0.0931	481	481	481	1	0	1	0	0	;
1882	19	0.000756	0.00252	0	0	0	0	1	0	1	0	0	;
1231	20	0.000237	0.00083	0.1863	268	268	268	1	0	1	0	0	;
1285	20	0.000178	0.000612	0.1377	268	268	268	1	0	1	0	0	;
58	21	0.002568	0.011753	0.0203	424	424	424	1	0	1	0	0	;
1887	21	0.002568	0.011615	0.0228	290	290	290	1	0	1	0	0	;
585	22	0.102293	0.226757	0.0025	0	0	0	1	0	1	0	0	;
845	22	0.177551	0.405291	0.0046	0	0	0	1	0	1	0	0	;
1183	22	0.088264	0.161566	0.0017	0	0	0	1	0	1	0	0	;
810	23	0.043336	0.11867	0.001	0	0	0	1	0	1	0	0	;
1046	23	0.067775	0.139834	0.001	0	0	0	1	0	1	0	0	;
1672	23	0.047367	0.16125	0.0021	0	0	0	1	0	1	0	0	;
1901	23	0.004031	0.016629	0.001	0	0	0	1	0	1	0	0	;
1361	24	9.90E-05	0.00077	0.078	379	379	379	1	0	1	0	0	;
1361	2470	9.90E-05	0.00077	0.077	379	379	379	1	0	1	0	0	;
1887	25	0.000514	0.003437	0.0061	290	290	290	1	0	1	0	0	;
1893	25	0.005476	0.036879	0.1255	522	522	522	1	0	1	0	0	;
58	25	0.000514	0.003457	0.0061	418	418	418	1	0	1	0	0	;
1124	26	0.003477	0.01118	0.0187	304	304	304	1	0	1	0	0	;
1393	26	0.000612	0.003121	0.0152	270	270	270	1	0	1	0	0	;
2647	27	0.013857	0.035525	0.0004	0	0	0	1	0	1	0	0	;
1497	28	2.40E-05	0.000144	0.0213	701	701	701	1	0	1	0	0	;
1497	2471	7.10E-05	0.000162	0.0162	251	251	251	1	0	1	0	0	;
246	29	0.068027	0.173091	0.002	0	0	0	1	0	1	0	0	;
292	29	0.027211	0.068783	0.001	0	0	0	1	0	1	0	0	;
769	29	0.03099	0.202822	0.002	0	0	0	1	0	1	0	0	;
1258	30	0.000257	0.001165	0.002	405	405	405	1	0	1	0	0	;
1885	31	0.047317	0.131595	0.0015	0	0	0	1	0	1	0	0	;
2578	32	0.075838	0.224742	0.0027	0	0	0	1	0	1	0	0	;
642	32	0.028471	0.089695	0.001	0	0	0	1	0	1	0	0	;
1321	32	0.080373	0.255732	0.003	0	0	0	1	0	1	0	0	;
2029	32	0.000252	0.000504	0	0	0	0	1	0	1	0	0	;
1886	33	0.000444	0.001136	0	0	0	0	1	0	1	0	0	;
1354	34	0.057284	0.130864	0	0	0	0	1	0	1	0	0	;
239	35	0.054749	0.157445	0.0027	0	0	0	1	0	1	0	0	;
1491	35	0.038549	0.103049	0.0012	0	0	0	1	0	1	0	0	;
2096	35	0.012598	0.052406	0.0006	0	0	0	1	0	1	0	0	;
791	36	0.006914	0.020741	0	0	0	0	1	0	1	0	0	;
706	37	0.032124	0.082892	0.003	0	0	0	1	0	1	0	0	;
1636	37	0.025573	0.09869	0.0012	0	0	0	1	0	1	0	0	;
631	38	0.005709	0.037926	0.0688	492	492	492	1	0	1	0	0	;
2011	38	0.001758	0.011654	0.0208	492	492	492	1	0	1	0	0	;
2482	39	0.001383	0.009462	0.0172	463	463	463	1	0	1	0	0	;
587	39	0.00156	0.006933	0.0121	432	432	432	1	0	1	0	0	;
779	39	0.006376	0.028733	0.0506	432	432	432	1	0	1	0	0	;
1275	39	0.00158	0.010627	0.0192	481	481	481	1	0	1	0	0	;
1094	40	0.001086	0.003536	0.3766	506	506	506	1	0	1	0	0	;
1094	40	0.001086	0.003536	0.3766	506	506	506	1	0	1	0	0	;
233	41	0.04059	0.110708	0.0013	0	0	0	1	0	1	0	0	;
245	41	0.073646	0.225598	0.0087	0	0	0	1	0	1	0	0	;
281	41	0.02066	0.088687	0.0021	0	0	0	1	0	1	0	0	;
1912	41	0.019904	0.08516	0.001	0	0	0	1	0	1	0	0	;
1914	41	0.014361	0.068027	0.0035	0	0	0	1	0	1	0	0	;
1750	41	0.059209	0.150164	0.0021	0	0	0	1	0	1	0	0	;
181	42	0.004741	0.020385	0.0334	0	0	0	1	0	1	0	0	;
1985	42	0.009027	0.048869	0.084	351	351	351	1	0	1	0	0	;
2015	42	0.003516	0.016257	0.0273	311	311	311	1	0	1	0	0	;
262	43	0.059461	0.163265	0.0018	0	0	0	1	0	1	0	0	;
1633	43	0.146384	0.373394	0.0051	0	0	0	1	0	1	0	0	;
384	44	0.000514	0.003417	0.0278	452	452	452	1	0	1	0	0	;
403	44	0.001084	0.007198	0.0132	448	448	448	1	0	1	0	0	;
1934	44	0.000523	0.002436	0.0167	348	348	348	1	0	1	0	0	;
384	44	0.000514	0.003457	0.0203	356	356	356	1	0	1	0	0	;
403	44	0.001086	0.007249	0.0132	540	540	540	1	0	1	0	0	;
1933	44	0.000553	0.002469	0.0157	405	405	405	1	0	1	0	0	;
403	44	0.001086	0.007269	0.0132	540	540	540	1	0	1	0	0	;
375	46	0.016125	0.068279	0.0081	0	0	0	1	0	1	0	0	;
1679	46	0.059209	0.150416	0.0021	0	0	0	1	0	1	0	0	;
375	46	0.016125	0.068279	0.0081	0	0	0	1	0	1	0	0	;
1591	47	0.102293	0.245906	0.0027	0	0	0	1	0	1	0	0	;
2099	47	0.036533	0.088435	0.001	0	0	0	1	0	1	0	0	;
993	48	0.019148	0.081381	0.0012	0	0	0	1	0	1	0	0	;
1568	48	0.02318	0.04258	0.0006	0	0	0	1	0	1	0	0	;
1951	48	0.002268	0.022424	0.0002	0	0	0	1	0	1	0	0	;
2100	2473	0.012094	0.030486	0.0004	0	0	0	1	0	1	0	0	;
993	2473	0.03351	0.088435	0.001	0	0	0	1	0	1	0	0	;
1950	2473	0.00252	0.02066	0.0002	0	0	0	1	0	1	0	0	;
1089	49	0.001837	0.011694	0.0759	467	467	467	1	0	1	0	0	;
1240	49	0.001067	0.007131	0.0132	413	413	413	1	0	1	0	0	;
1689	49	0.001284	0.008593	0.0152	541	541	541	1	0	1	0	0	;
2783	49	0.001284	0.008593	0.0162	541	541	541	1	0	1	0	0	;
2783	49	0.001284	0.008533	0.0162	541	541	541	1	0	1	0	0	;
2514	50	0.000494	0.000928	0.0699	0	0	0	1	0	1	0	0	;
429	50	0.000184	0.00159	0.1661	422	422	422	1	0	1	0	0	;
1481	50	0.000198	0.001711	0.1711	385	385	385	1	0	1	0	0	;
1505	50	0.000751	0.003358	0.1534	385	385	385	1	0	1	0	0	;
445	51	0.000178	0.001047	0.1499	452	452	452	1	0	1	0	0	;
645	2824	0.000119	0.000474	0.0688	452	452	452	1	0	1	0	0	;
1231	51	0.000316	0.002232	0.2774	452	452	452	1	0	1	0	0	;
2500	52	0.047115	0.108088	0.0031	0	0	0	1	0	1	0	0	;
1112	52	0.036281	0.154195	0.0037	0	0	0	1	0	1	0	0	;
1667	53	0.037227	0.106836	0.0328	0	0	0	1	0	1	0	0	;
1908	53	0.006089	0.020756	0.0067	0	0	0	1	0	1	0	0	;
1095	54	0.000729	0.005118	0.0933	389	389	389	1	0	1	0	0	;
1095	54	0.000755	0.005235	0.0909	419	419	419	1	0	1	0	0	;
316	55	0.001787	0.01946	0.4214	1579	1579	1579	1	0	1	0	0	;
632	56	0.001719	0.00877	0.0157	321	321	321	1	0	1	0	0	;
1521	56	0.009165	0.04318	0.077	321	321	321	1	0	1	0	0	;
188	58	0.004879	0.032454	0.0602	487	487	487	1	0	1	0	0	;
255	58	0.006341	0.042746	0.0785	418	418	418	1	0	1	0	0	;
280	58	0.006914	0.031249	0.0547	327	327	327	1	0	1	0	0	;
391	59	0.000582	0.007652	0.2643	2487	2487	2487	1	0	1	0	0	;
988	59	0.001648	0.021634	0.748	2487	2487	2487	1	0	1	0	0	;
1224	59	0.000838	0.014301	0.5198	2487	2487	2487	1	0	1	0	0	;
2785	59	0.001163	0.015312	0.5285	2487	2487	2487	1	0	1	0	0	;
391	59	0.000575	0.007576	0.2614	2487	2487	2487	1	0	1	0	0	;
988	59	0.001646	0.021633	0.7479	2487	2487	2487	1	0	1	0	0	;
1224	59	0.000838	0.014287	0.5198	2487	2487	2487	1	0	1	0	0	;
1703	59	0.00117	0.015339	0.5285	2487	2487	2487	1	0	1	0	0	;
2785	59	0.001821	0.017874	0.4318	1382	1382	1382	1	0	1	0	0	;
180	60	0.003023	0.01159	0.0002	0	0	0	1	0	1	0	0	;
62	61	0.011163	0.020434	0.0002	0	0	0	1	0	1	0	0	;
1572	62	0.070043	0.190728	0.0021	0	0	0	1	0	1	0	0	;
1665	2474	0.110103	0.294533	0.004	0	0	0	1	0	1	0	0	;
1735	62	0.034014	0.145629	0.0018	0	0	0	1	0	1	0	0	;
64	2474	0.000171	0.000313	0.0003	0	0	0	1	0	1	0	0	;
731	63	0.000672	0.003477	0.0365	254	254	254	1	0	1	0	0	;
249	65	0.138123	0.332	0.001	0	0	0	1	0	1	0	0	;
1753	2475	0.000988	0.003457	0	0	0	0	1	0	1	0	0	;
2124	65	0.008395	0.02321	0	0	0	0	1	0	1	0	0	;
1874	66	0.000632	0.004188	0.0081	471	471	471	1	0	1	0	0	;
1874	2476	0.000612	0.004148	0.0071	471	471	471	1	0	1	0	0	;
1346	68	0.000672	0.004405	0.0081	541	541	541	1	0	1	0	0	;
2069	68	0.000968	0.004602	0.0081	304	304	304	1	0	1	0	0	;
1346	68	0.000632	0.004444	0.0081	440	440	440	1	0	1	0	0	;
2074	69	0.001975	0.013215	0.0243	541	541	541	1	0	1	0	0	;
2075	69	0.001956	0.013037	0.0243	0	0	0	1	0	1	0	0	;
1741	70	0.002933	0.010267	0.0032	0	0	0	1	0	1	0	0	;
1890	70	0.0028	0.007511	0.0022	0	0	0	1	0	1	0	0	;
72	2477	2.00E-05	0.000198	0.0121	261	261	261	1	0	1	0	0	;
72	71	2.00E-05	0.000198	0.0142	261	261	261	1	0	1	0	0	;
2545	72	0.002037	0.010904	0.0187	352	352	352	1	0	1	0	0	;
418	72	0.000415	0.002015	0.1266	428	428	428	1	0	1	0	0	;
478	72	0.000395	0.00156	0.1893	426	426	426	1	0	1	0	0	;
782	72	4.00E-05	0.000178	0.0152	0	0	0	1	0	1	0	0	;
2682	72	0.001323	0.012444	0.0678	935	935	935	1	0	1	0	0	;
1612	72	0.000454	0.002133	0.2511	268	268	268	1	0	1	0	0	;
1835	72	0.000119	0.000691	0.1002	387	387	387	1	0	1	0	0	;
1866	72	0.00083	0.005175	0.0203	323	323	323	1	0	1	0	0	;
2682	72	0.001314	0.012115	0.0673	943	943	943	1	0	1	0	0	;
2811	72	5.90E-05	0.000217	0.0496	323	323	323	1	0	1	0	0	;
1833	72	5.90E-05	0.000217	0.0466	323	323	323	1	0	1	0	0	;
1621	73	0.000854	0.001563	0.0007	0	0	0	1	0	1	0	0	;
1888	74	0.000494	0.000988	0	0	0	0	1	0	1	0	0	;
122	75	0.062232	0.138574	0.0015	0	0	0	1	0	1	0	0	;
1882	75	0.035525	0.084782	0.0009	0	0	0	1	0	1	0	0	;
1503	76	0.000158	0.000948	0.002	348	348	348	1	0	1	0	0	;
123	77	0.035273	0.218443	0.0029	0	0	0	1	0	1	0	0	;
208	77	0.000252	0.000504	0	0	0	0	1	0	1	0	0	;
349	77	0.034442	0.11809	0.0091	0	0	0	1	0	1	0	0	;
123	77	0.034266	0.221466	0	0	0	0	1	0	1	0	0	;
306	78	0.0839	0.229025	0.0025	0	0	0	1	0	1	0	0	;
661	78	0.048627	0.123205	0.0014	0	0	0	1	0	1	0	0	;
892	79	0.001521	0.007076	0.0118	302	302	302	1	0	1	0	0	;
1681	79	0.002469	0.011457	0.0203	315	315	315	1	0	1	0	0	;
518	80	0.001442	0.009699	0.0172	566	566	566	1	0	1	0	0	;
562	80	0.001422	0.009541	0.0172	566	566	566	1	0	1	0	0	;
157	81	0.024691	0.056941	0.001	0	0	0	1	0	1	0	0	;
401	81	0.0194	0.038549	0.0033	0	0	0	1	0	1	0	0	;
...
];

%-----  OPF Data  -----%%
% generator cost data
%	1	startup	shutdown	n	x1	y1	...	xn	yn
%	2	startup	shutdown	n	c(n-1)	...	c0
mpc.gencost = [
	2	0	0	2	0	0	;
2	0	0	2	0	0	;
2	0	0	2	0	0	;
2	0	0	2	0	0	;
2	0	0	2	0	0	;
2	0	0	2	0	0	;
2	0	0	2	0	0	;
2	0	0	2	0	0	;
2	0	0	2	0	0	;
2	0	0	2	0	0	;
2	0	0	2	0	0	;
2	0	0	2	0	0	;
2	0	0	2	0	0	;
2	0	0	2	0	0	;
2	0	0	2	0	0	;
2	0	0	2	0	0	;
2	0	0	2	0	0	;
2	0	0	2	0	0	;
2	0	0	2	0	0	;
2	0	0	2	0	0	;
2	0	0	2	0	0	;
2	0	0	2	0	0	;
2	0	0	2	0	0	;
2	0	0	2	0	0	;
2	0	0	2	0	0	;
2	0	0	2	0	0	;
2	0	0	2	0	0	;
2	0	0	2	0	0	;
2	0	0	2	0	0	;
2	0	0	2	0	0	;
2	0	0	2	0	0	;
2	0	0	2	0	0	;
2	0	0	2	0	0	;
2	0	0	2	0	0	;
2	0	0	2	0	0	;
2	0	0	2	0	0	;
2	0	0	2	0	0	;
2	0	0	2	0	0	;
2	0	0	2	0	0	;
2	0	0	2	0	0	;
2	0	0	2	0	0	;
2	0	0	2	0	0	;
2	0	0	2	0	0	;
2	0	0	2	0	0	;
2	0	0	2	0	0	;
2	0	0	2	0	0	;
2	0	0	2	0	0	;
2	0	0	2	0	0	;
2	0	0	2	0	0	;
2	0	0	2	0	0	;
2	0	0	2	0	0	;
2	0	0	2	0	0	;
2	0	0	2	0	0	;
2	0	0	2	0	0	;
2	0	0	2	0	0	;
2	0	0	2	0	0	;
2	0	0	2	0	0	;
2	0	0	2	0	0	;
2	0	0	2	0	0	;
2	0	0	2	0	0	;
2	0	0	2	0	0	;
2	0	0	2	0	0	;
2	0	0	2	0	0	;
2	0	0	2	0	0	;
2	0	0	2	0	0	;
2	0	0	2	0	0	;
2	0	0	2	0	0	;
2	0	0	2	0	0	;
2	0	0	2	0	0	;
2	0	0	2	0	0	;
2	0	0	2	0	0	;
2	0	0	2	0	0	;
2	0	0	2	0	0	;
2	0	0	2	0	0	;
2	0	0	2	0	0	;
2	0	0	2	0	0	;
2	0	0	2	0	0	;
2	0	0	2	0	0	;
2	0	0	2	0	0	;
2	0	0	2	0	0	;
2	0	0	2	0	0	;
2	0	0	2	0	0	;
2	0	0	2	0	0	;
2	0	0	2	0	0	;
2	0	0	2	0	0	;
2	0	0	2	0	0	;
2	0	0	2	0	0	;
2	0	0	2	0	0	;
2	0	0	2	0	0	;
2	0	0	2	0	0	;
2	0	0	2	0	0	;
2	0	0	2	0	0	;
2	0	0	2	0	0	;
2	0	0	2	0	0	;
2	0	0	2	0	0	;
2	0	0	2	0	0	;
2	0	0	2	0	0	;
2	0	0	2	0	0	;
2	0	0	2	0	0	;
2	0	0	2	0	0	;
2	0	0	2	0	0	;
2	0	0	2	0	0	;
2	0	0	2	0	0	;
2	0	0	2	0	0	;
2	0	0	2	0	0	;
2	0	0	2	0	0	;
2	0	0	2	0	0	;
2	0	0	2	0	0	;
2	0	0	2	0	0	;
2	0	0	2	0	0	;
2	0	0	2	0	0	;
2	0	0	2	0	0	;
2	0	0	2	0	0	;
2	0	0	2	0	0	;
2	0	0	2	0	0	;
2	0	0	2	0	0	;
2	0	0	2	0	0	;
2	0	0	2	0	0	;
2	0	0	2	0	0	;
2	0	0	2	0	0	;
2	0	0	2	0	0	;
2	0	0	2	0	0	;
2	0	0	2	0	0	;
2	0	0	2	0	0	;
2	0	0	2	0	0	;
2	0	0	2	0	0	;
2	0	0	2	0	0	;
2	0	0	2	0	0	;
2	0	0	2	0	0	;
2	0	0	2	0	0	;
2	0	0	2	0	0	;
2	0	0	2	0	0	;
2	0	0	2	0	0	;
2	0	0	2	0	0	;
2	0	0	2	0	0	;
2	0	0	2	0	0	;
2	0	0	2	0	0	;
2	0	0	2	0	0	;
2	0	0	2	0	0	;
2	0	0	2	0	0	;
2	0	0	2	0	0	;
2	0	0	2	0	0	;
2	0	0	2	0	0	;
2	0	0	2	0	0	;
2	0	0	2	0	0	;
2	0	0	2	0	0	;
2	0	0	2	0	0	;
2	0	0	2	0	0	;
2	0	0	2	0	0	;
2	0	0	2	0	0	;
2	0	0	2	0	0	;
2	0	0	2	0	0	;
2	0	0	2	0	0	;
2	0	0	2	0	0	;
2	0	0	2	0	0	;
2	0	0	2	0	0	;
2	0	0	2	0	0	;
2	0	0	2	0	0	;
2	0	0	2	0	0	;
2	0	0	2	0	0	;
2	0	0	2	0	0	;
2	0	0	2	0	0	;
2	0	0	2	0	0	;
2	0	0	2	0	0	;
2	0	0	2	0	0	;
2	0	0	2	0	0	;
2	0	0	2	0	0	;
2	0	0	2	0	0	;
2	0	0	2	0	0	;
2	0	0	2	0	0	;
2	0	0	2	0	0	;
2	0	0	2	0	0	;
2	0	0	2	0	0	;
2	0	0	2	0	0	;
2	0	0	2	0	0	;
2	0	0	2	0	0	;
2	0	0	2	0	0	;
2	0	0	2	0	0	;
2	0	0	2	0	0	;
2	0	0	2	0	0	;
2	0	0	2	0	0	;
2	0	0	2	0	0	;
2	0	0	2	0	0	;
2	0	0	2	0	0	;
2	0	0	2	0	0	;
2	0	0	2	0	0	;
2	0	0	2	0	0	;
2	0	0	2	0	0	;
2	0	0	2	0	0	;
2	0	0	2	0	0	;
2	0	0	2	0	0	;
2	0	0	2	0	0	;
2	0	0	2	0	0	;
2	0	0	2	0	0	;
2	0	0	2	0	0	;
2	0	0	2	0	0	;
2	0	0	2	0	0	;
2	0	0	2	0	0	;
2	0	0	2	0	0	;
2	0	0	2	0	0	;
...
];


%%-----  Reserve Data  -----%%
% reserve zones, element i, j is 1 if gen j is in zone i, 0 otherwise
%%%%%%%%%% Temporary settings %%%%%%%%%%%%%%%%
mpc.reserves.zones = zeros(num_zones, length(mpc.gen));

% reserve requirements for each zone in MW
mpc.reserves.req = zeros(num_zones, 1);

% reserve costs in $/MW for each gen that belongs to at least 1 zone
% (same order as gens, but skipping any gen that does not belong to any zone)
% mpc.reserves.cost  = [	5;	5;	21;	];
% mpc.reserves.cost  = [	5;	5;	16.25;	];
% mpc.reserves.cost  = [	0;	0;	11.25;	];
mpc.reserves.cost  = 0;

% OPTIONAL max reserve quantities for each gen that belongs to at least 1 zone
% (same order as gens, but skipping any gen that does not belong to any zone)
% mpc.reserves.qty   = 50*ones(54, 1);
mpc.reserves.qty   = 0;

end




